data_OTARUX01_clean
_audit_creation_date              2014-07-02
_audit_creation_method            'Materials Studio'
_symmetry_space_group_name_H-M    'P1'
_symmetry_Int_Tables_number       1
_symmetry_cell_setting            triclinic
loop_
_symmetry_equiv_pos_as_xyz
  x,y,z
_cell_length_a                    3.7289
_cell_length_b                    15.9324
_cell_length_c                    15.9324
_cell_angle_alpha                 89.2154
_cell_angle_beta                  83.2801
_cell_angle_gamma                 83.2797
loop_
_atom_site_label
_atom_site_type_symbol
_atom_site_fract_x
_atom_site_fract_y
_atom_site_fract_z
_atom_site_U_iso_or_equiv
_atom_site_adp_type
_atom_site_occupancy
Ag1    Ag    0.12500   0.25000   0.75000   0.01267  Uiso   1.00
Ag2    Ag    0.87500   0.75000   0.25000   0.01267  Uiso   1.00
H1     H     0.56860   0.12810   0.56090   0.01267  Uiso   1.00
H2     H     0.25760   0.37190   0.93910   0.01267  Uiso   1.00
H3     H     0.12950   0.93910   0.12810   0.01267  Uiso   1.00
H4     H     0.19670   0.56090   0.37190   0.01267  Uiso   1.00
H5     H     0.43140   0.87190   0.43910   0.01267  Uiso   1.00
H6     H     0.74240   0.62810   0.06090   0.01267  Uiso   1.00
H7     H     0.87050   0.06090   0.87190   0.01267  Uiso   1.00
H8     H     0.80330   0.43910   0.62810   0.01267  Uiso   1.00
C1     C     0.87884   0.06533   0.68399   0.01267  Uiso   1.00
C2     C     0.66302   0.99965   0.57611   0.01267  Uiso   1.00
C3     C     0.54385   0.07733   0.53577   0.01267  Uiso   1.00
C4     C     0.60913   0.92152   0.53622   0.01267  Uiso   1.00
C5     C     0.62816   0.43467   0.81601   0.01267  Uiso   1.00
C6     C     0.23878   0.50035   0.92389   0.01267  Uiso   1.00
C7     C     0.15695   0.42267   0.96423   0.01267  Uiso   1.00
C8     C     0.06687   0.57848   0.96378   0.01267  Uiso   1.00
C9     C     0.56283   0.81601   0.06533   0.01267  Uiso   1.00
C10    C     0.23913   0.92389   0.99965   0.01267  Uiso   1.00
C11    C     0.07962   0.96423   0.07733   0.01267  Uiso   1.00
C12    C     0.14535   0.96378   0.92152   0.01267  Uiso   1.00
C13    C     0.44417   0.68399   0.43467   0.01267  Uiso   1.00
C14    C     0.16267   0.57611   0.50035   0.01267  Uiso   1.00
C15    C     0.12118   0.53577   0.42267   0.01267  Uiso   1.00
C16    C     0.03065   0.53622   0.57848   0.01267  Uiso   1.00
C17    C     0.12116   0.93467   0.31601   0.01267  Uiso   1.00
C18    C     0.33698   0.00035   0.42389   0.01267  Uiso   1.00
C19    C     0.45615   0.92267   0.46423   0.01267  Uiso   1.00
C20    C     0.39087   0.07848   0.46378   0.01267  Uiso   1.00
C21    C     0.37184   0.56533   0.18399   0.01267  Uiso   1.00
C22    C     0.76122   0.49965   0.07611   0.01267  Uiso   1.00
C23    C     0.84305   0.57733   0.03577   0.01267  Uiso   1.00
C24    C     0.93313   0.42152   0.03622   0.01267  Uiso   1.00
C25    C     0.43717   0.18399   0.93467   0.01267  Uiso   1.00
C26    C     0.76087   0.07611   0.00035   0.01267  Uiso   1.00
C27    C     0.92038   0.03577   0.92267   0.01267  Uiso   1.00
C28    C     0.85465   0.03622   0.07848   0.01267  Uiso   1.00
C29    C     0.55583   0.31601   0.56533   0.01267  Uiso   1.00
C30    C     0.83733   0.42389   0.49965   0.01267  Uiso   1.00
C31    C     0.87882   0.46423   0.57733   0.01267  Uiso   1.00
C32    C     0.96935   0.46378   0.42152   0.01267  Uiso   1.00
N1     N     0.93996   0.12143   0.72165   0.01267  Uiso   1.00
N2     N     0.82573   0.99481   0.64613   0.01267  Uiso   1.00
N3     N     0.78304   0.37857   0.77835   0.01267  Uiso   1.00
N4     N     0.46667   0.50519   0.85387   0.01267  Uiso   1.00
N5     N     0.66161   0.77835   0.12143   0.01267  Uiso   1.00
N6     N     0.47186   0.85387   0.99481   0.01267  Uiso   1.00
N7     N     0.56139   0.72165   0.37857   0.01267  Uiso   1.00
N8     N     0.32054   0.64613   0.50519   0.01267  Uiso   1.00
N9     N     0.06004   0.87857   0.27835   0.01267  Uiso   1.00
N10    N     0.17427   0.00519   0.35387   0.01267  Uiso   1.00
N11    N     0.21696   0.62143   0.22165   0.01267  Uiso   1.00
N12    N     0.53333   0.49481   0.14613   0.01267  Uiso   1.00
N13    N     0.33839   0.22165   0.87857   0.01267  Uiso   1.00
N14    N     0.52814   0.14613   0.00519   0.01267  Uiso   1.00
N15    N     0.43861   0.27835   0.62143   0.01267  Uiso   1.00
N16    N     0.67946   0.35387   0.49481   0.01267  Uiso   1.00
Cl1    Cl    0.74469   0.82747   0.58355   0.01267  Uiso   1.00
Cl2    Cl    0.15571   0.67253   0.91645   0.01267  Uiso   1.00
Cl3    Cl    0.32824   0.91645   0.82747   0.01267  Uiso   1.00
Cl4    Cl    0.07216   0.58355   0.67253   0.01267  Uiso   1.00
Cl5    Cl    0.25531   0.17253   0.41645   0.01267  Uiso   1.00
Cl6    Cl    0.84429   0.32747   0.08355   0.01267  Uiso   1.00
Cl7    Cl    0.67176   0.08355   0.17253   0.01267  Uiso   1.00
Cl8    Cl    0.92784   0.41645   0.32747   0.01267  Uiso   1.00
