data_JUTCUW_clean
_audit_creation_date              2014-07-02
_audit_creation_method            'Materials Studio'
_symmetry_space_group_name_H-M    'P1'
_symmetry_Int_Tables_number       1
_symmetry_cell_setting            triclinic
loop_
_symmetry_equiv_pos_as_xyz
  x,y,z
_cell_length_a                    8.9364
_cell_length_b                    8.9364
_cell_length_c                    8.9364
_cell_angle_alpha                 60.0000
_cell_angle_beta                  60.0000
_cell_angle_gamma                 60.0000
loop_
_atom_site_label
_atom_site_type_symbol
_atom_site_fract_x
_atom_site_fract_y
_atom_site_fract_z
_atom_site_U_iso_or_equiv
_atom_site_adp_type
_atom_site_occupancy
Cd1    Cd    0.87500   0.37500   0.37500   0.01267  Uiso   1.00
Cd2    Cd    0.12500   0.62500   0.62500   0.01267  Uiso   1.00
C1     C     0.58100   0.47300   0.47300   0.01267  Uiso   1.00
C2     C     0.97300   0.08100   0.47300   0.01267  Uiso   1.00
C3     C     0.97300   0.47300   0.08100   0.01267  Uiso   1.00
C4     C     0.97300   0.47300   0.47300   0.01267  Uiso   1.00
C5     C     0.02700   0.91900   0.52700   0.01267  Uiso   1.00
C6     C     0.41900   0.52700   0.52700   0.01267  Uiso   1.00
C7     C     0.02700   0.52700   0.91900   0.01267  Uiso   1.00
C8     C     0.02700   0.52700   0.52700   0.01267  Uiso   1.00
