# generated using pymatgen
data_FeO4
_symmetry_space_group_name_H-M   'P 1'
_cell_length_a   10.36100000
_cell_length_b   10.39000000
_cell_length_c   9.13500000
_cell_angle_alpha   90.00000000
_cell_angle_beta   90.00000000
_cell_angle_gamma   90.00000000
_symmetry_Int_Tables_number   1
_chemical_formula_structural   FeO4
_chemical_formula_sum   'Fe1 O4'
_cell_volume   983.38996665
_cell_formula_units_Z   1
loop_
 _symmetry_equiv_pos_site_id
 _symmetry_equiv_pos_as_xyz
  1  'x, y, z'
loop_
 _atom_site_type_symbol
 _atom_site_label
 _atom_site_symmetry_multiplicity
 _atom_site_fract_x
 _atom_site_fract_y
 _atom_site_fract_z
 _atom_site_occupancy
  Fe  Fe0  1  0.62270000  0.12260000  0.15740000  1
  O  O1  1  0.49900000  -0.00120000  0.24320000  1
  O  O2  1  0.65100000  0.06150000  -0.04270000  1
  O  O3  1  0.57500000  0.29420000  0.18760000  1
  O  O4  1  0.79320000  0.08000000  0.18550000  1
