data_PCS


#**************************************************************************
#
# CIF taken from the IZA-SC Database of Zeolite Structures
# Ch. Baerlocher and L.B. McCusker
# Database of Zeolite Structures: http://www.iza-structure.org/databases/ 
#
# The atom coordinates and the cell parameters were optimized with DLS76
# assuming a pure SiO2 composition.
#
#**************************************************************************


_cell_length_a    20.76535
_cell_length_b    13.90475
_cell_length_c    12.40021
_cell_angle_alpha   90.00000
_cell_angle_beta   101.32000
_cell_angle_gamma   90.00000
_cell_volume 3510.7401

_symmetry_space_group_name_H-M 'P12/m1'
_symmetry_Int_Tables_number     10    
_symmetry_cell_setting             monoclinic



loop_
  _symmetry_equiv_pos_as_xyz
X,Y,Z
X,-Y,Z
-X,-Y,-Z
-X,Y,-Z


loop_
  _atom_site_label
  _atom_site_type_symbol
  _atom_site_fract_x
  _atom_site_fract_y
  _atom_site_fract_z
Si1   Si   0.51046   0.38682   0.13071 
Si2   Si   0.37412   0.30830   0.15406 
Si3   Si   0.29182   0.20756   0.30052 
Si4   Si   0.28592   0.20602   0.55096 
Si5   Si   0.09205   0.19815   0.73055 
Si6   Si   0.14451   0.29407   0.54287 
Si7   Si   0.15952   0.29660   0.94351 
Si8   Si   0.15164   0.29602   0.19440 
Si9   Si   0.29959   0.20651   0.95126 
Si10  Si   0.34879   0.30682   0.76604 
Si11  Si   0.93462   0.19732   0.66209 
Si12  Si   0.20140   0.50000   0.50834 
Si13  Si   0.27392   0.50000   0.73191 
Si14  Si   0.28729   0.50000   0.10089 
Si15  Si   0.18157   0.50000   0.25860 
Si16  Si   0.18341   0.50000   0.88283 
Si17  Si   0.24157   0.00000   0.23053 
Si18  Si   0.25536   0.00000   0.59580 
Si19  Si   0.16114   0.00000   0.75192 
Si20  Si   0.24100   0.00000   0.97950 
Si21  Si   0.86104   0.00000   0.61632 
O1    O    0.50000   0.37018   0.00000 
O2    O    0.51726   0.50000   0.15807 
O3    O    0.44997   0.34076   0.17698 
O4    O    0.35896   0.23763   0.04926 
O5    O    0.33164   0.40492   0.12550 
O6    O    0.35289   0.25396   0.25630 
O7    O    0.22548   0.26430   0.24806 
O8    O    0.30518   0.21948   0.43225 
O9    O    0.28407   0.09508   0.26965 
O10   O    0.22089   0.00000   0.09839 
O11   O    0.17581   0.00000   0.28102 
O12   O    0.33102   0.27564   0.63860 
O13   O    0.20931   0.23112   0.54135 
O14   O    0.29821   0.09538   0.58820 
O15   O    0.19244   0.00000   0.49667 
O16   O    0.22997   0.00000   0.71048 
O17   O    0.11994   0.09426   0.70532 
O18   O    0.17584   0.00000   0.88438 
O19   O    0.11946   0.27749   0.65638 
O20   O    0.01312   0.19601   0.70127 
O21   O    0.08625   0.26926   0.44044 
O22   O    0.16042   0.40618   0.52979 
O23   O    0.26797   0.50000   0.60045 
O24   O    0.31125   0.40484   0.78492 
O25   O    0.20201   0.50000   0.76263 
O26   O    0.23558   0.50000   0.18179 
O27   O    0.25024   0.50000   0.97416 
O28   O    0.90033   0.22699   0.76284 
O29   O    0.14274   0.40437   0.89896 
O30   O    0.23627   0.27283   0.95288 
O31   O    0.14035   0.28699   0.06265 
O32   O    0.13776   0.40458   0.22920 
O33   O    0.21699   0.50000   0.38630 
O34   O    0.32454   0.22229   0.83746 
O35   O    0.28316   0.09475   0.96582 
O36   O    0.11640   0.22247   0.85904 
O37   O    0.90768   0.09281   0.61970 
O38   O    0.42578   0.32828   0.80802 
