data_CZP
#**************************************************************************
#
# CIF taken from the IZA-SC Database of Zeolite Structures
# Ch. Baerlocher and L.B. McCusker
# Database of Zeolite Structures: http://www.iza-structure.org/databases/ 
#
# The atom coordinates and the cell parameters were optimized with DLS76
# assuming a pure SiO2 composition.
#
#**************************************************************************

_cell_length_a                   9.3065(0)
_cell_length_b                   9.3065(0)
_cell_length_c                  15.0915(0)
_cell_angle_alpha               90.0000(0)
_cell_angle_beta                90.0000(0)
_cell_angle_gamma              120.0000(0)

_symmetry_space_group_name_H-M     'P 61 2 2'
_symmetry_Int_Tables_number         178
_symmetry_cell_setting             hexagonal

loop_
_symmetry_equiv_pos_as_xyz
'+x,+y,+z'
'-y,+x-y,1/3+z'
'-x+y,-x,2/3+z'
'+y,+x,1/3-z'
'+x-y,-y,-z'
'-x,-x+y,2/3-z'
'-x,-y,1/2+z'
'+y,-x+y,5/6+z'
'+x-y,+x,1/6+z'
'-y,-x,5/6-z'
'-x+y,+y,1/2-z'
'+x,+x-y,1/6-z'

loop_
_atom_site_label
_atom_site_type_symbol
_atom_site_fract_x
_atom_site_fract_y
_atom_site_fract_z
    O1    O     0.1784  0.4581   0.3312
    O2    O     0.1873  0.5465   0.5012
    O3    O     0.0163  0.2404   0.4509
    O4    O     0.3456  0.3904   0.4471
    T1    Si    0.1861  0.4124   0.4335
    T2    Si    0.5357  0.0714   0.7500
    T3    Si    0.1710  0.3420   0.2500

