data_FRA

#**************************************************************************
#
# CIF taken from the IZA-SC Database of Zeolite Structures
# Ch. Baerlocher and L.B. McCusker
# Database of Zeolite Structures: http://www.iza-structure.org/databases/ 
#
# The atom coordinates and the cell parameters were optimized with DLS76
# assuming a pure SiO2 composition.
#
#**************************************************************************


_cell_length_a    12.66240
_cell_length_b    12.66240
_cell_length_c    25.25930
_cell_angle_alpha   90.00000
_cell_angle_beta    90.00000
_cell_angle_gamma  120.00000
_cell_volume ??
_symmetry_space_group_name_H-M 'P-3M1'
_symmetry_Int_Tables_number         164
_symmetry_cell_setting             trigonal


loop_
  _symmetry_equiv_pos_as_xyz
X,Y,Z
-Y,X-Y,Z
-X+Y,-X,Z
-Y,-X,Z
X,X-Y,Z
-X+Y,Y,Z
-X,-Y,-Z
Y,-X+Y,-Z
X-Y,X,-Z
Y,X,-Z
-X,-X+Y,-Z
X-Y,-Y,-Z


loop_
  _atom_site_label
 _atom_site_type_symbol
  _atom_site_fract_x
  _atom_site_fract_y
  _atom_site_fract_z
T1   Si   0.42299   0.33270   0.10038 
T2   Si   0.42294   0.33441   0.79954 
T3   Si   0.42125   0.32923   0.39933 
T5   Si   0.24353   0.24319   0.70038 
T4   Si   0.24326   0.24326   0.00000 
T6   Si   0.24915   0.24915   0.50000 
O1   O   0.43230   0.21615   0.11929 
O2   O   0.89540   0.79080   0.28924 
O3   O   0.23440   0.11720   0.51054 
O4   O   0.65436   0.95676   0.65497 
O5   O   0.33390   0.31072   0.44892 
O6   O   0.37456   0.36547   0.85292 
O7   O   0.47306   0.23653   0.40445 
O8   O   0.33663   0.29686   0.04902 
O9   O   0.45345   0.54655   0.21949 
O10  O   0.53252   0.06504   0.39889 
O11  O   0.32076   0.29428   0.75417 
O12  O   0.87691   0.75382   0.68153 
O13  O   0.44992   0.22496   0.81072 
O14  O   0.88604   0.44302   0.08598 
O15  O   0.11321   0.22642   0.01715 
