data_ITH

#**************************************************************************
#
# CIF taken from the IZA-SC Database of Zeolite Structures
# Ch. Baerlocher and L.B. McCusker
# Database of Zeolite Structures: http://www.iza-structure.org/databases/ 
#
# The atom coordinates and the cell parameters were optimized with DLS76
# assuming a pure SiO2 composition.
#
#**************************************************************************


_cell_length_a    12.56550
_cell_length_b    11.66150
_cell_length_c    21.93030
_cell_angle_alpha   90.00000
_cell_angle_beta    90.00000
_cell_angle_gamma   90.00000

_symmetry_space_group_name_H-M     'A m m 2'
_symmetry_Int_Tables_number         38
_symmetry_cell_setting             orthorhombic

loop_
  _symmetry_equiv_pos_as_xyz
X,Y,Z
-X,-Y,Z
-X,Y,Z
X,-Y,Z
X,Y+1/2,Z+1/2
-X,-Y+1/2,Z+1/2
-X,Y+1/2,Z+1/2
X,-Y+1/2,Z+1/2


loop_
  _atom_site_label
  _atom_site_type_symbol
  _atom_site_fract_x
  _atom_site_fract_y
  _atom_site_fract_z
T1   Si  0.87879   0.36722   0.69593 
T2   Si  0.68429   0.24973   0.63854 
T3   Si  0.87509   0.36944   0.83540 
T4   Si  0.70000   0.28561   0.39087 
T5   Si  0.62194   0.36883   0.51443 
T6   Si  0.50000   0.36827   0.85980 
T7   Si  0.50000   0.36828   0.71329 
T8   Si  0.62217   0.50000   0.17085 
T9   Si  0.62229   0.50000   0.31742 
O1   O   0.68211   0.38720   0.34227 
O2   O   0.64016   0.50000   0.53486 
O3   O   0.70052   0.33874   0.45865 
O4   O   0.60486   0.30511   0.68795 
O5   O   0.85314   0.50000   0.85585 
O6   O   0.00000   0.34148   0.84169 
O7   O   0.64755   0.28499   0.57082 
O8   O   0.80380   0.29347   0.65115 
O9   O   0.68136   0.11225   0.64487 
O10  O   0.83940   0.35320   0.76539 
O11  O   0.50000   0.35187   0.49367 
O12  O   0.80983   0.21906   0.37758 
O13  O   0.50000   0.50000   0.88173 
O14  O   0.00000   0.32364   0.69019 
O15  O   0.39563   0.30570   0.88616 
O16  O   0.62690   0.50000   0.24412 
O17  O   0.50000   0.50000   0.69133 
O18  O   0.50000   0.36266   0.78655 
O19  O   0.87255   0.50000   0.67624 
O20  O   0.50000   0.50000   0.14874 
O21  O   0.50000   0.50000   0.33936 
