data_IWW
#**************************************************************************
#
# CIF taken from the IZA-SC Database of Zeolite Structures
# Ch. Baerlocher and L.B. McCusker
# Database of Zeolite Structures: http://www.iza-structure.org/databases/ 
#
# The atom coordinates and the cell parameters were optimized with DLS76
# assuming a pure SiO2 composition.
#
#**************************************************************************

_cell_length_a    41.69080
_cell_length_b    12.71280
_cell_length_c    12.71140
_cell_angle_alpha   90.00000
_cell_angle_beta    90.00000
_cell_angle_gamma   90.00000

_symmetry_space_group_name_H-M     'P b a m'
_symmetry_Int_Tables_number         55
_symmetry_cell_setting             orthorhombic

loop_
  _symmetry_equiv_pos_as_xyz
X,Y,Z
-X,-Y,Z
X+1/2,-Y+1/2,-Z
-X+1/2,Y+1/2,-Z
-X,-Y,-Z
X,Y,-Z
-X+1/2,Y+1/2,Z
X+1/2,-Y+1/2,Z


loop_
  _atom_site_label
  _atom_site_type_symbol
  _atom_site_fract_x
  _atom_site_fract_y
  _atom_site_fract_z
T1   Si  0.38098   0.89481   0.12165 
T2   Si  0.41832   0.68976   0.12191 
T3   Si  0.35489   0.56473   0.12136 
T4   Si  0.31724   0.76960   0.12104 
T5   Si  0.35123   0.40666   0.30601 
T6   Si  0.37983   0.04741   0.30841 
T7   Si  0.27773   0.84534   0.30812 
T8   Si  0.46060   0.61828   0.30707 
T9   Si  0.29113   0.28790   0.38006 
T10  Si  0.30903   0.05610   0.37992 
T11  Si  0.40655   0.26351   0.37907 
T12  Si  0.46911   0.39215   0.37896 
T13  Si  0.37875   0.89689   0.50000 
T14  Si  0.41874   0.68085   0.50000 
T15  Si  0.35740   0.55874   0.50000 
T16  Si  0.31738   0.77473   0.50000 
O1   O   0.40987   0.81231   0.13818 
O2   O   0.37941   0.92962   0.00000 
O3   O   0.34768   0.83983   0.15467 
O4   O   0.38635   0.99725   0.19407 
O5   O   0.42640   0.66805   0.00000 
O6   O   0.38797   0.61962   0.15678 
O7   O   0.44871   0.65746   0.19311 
O8   O   0.35745   0.52960   0.00000 
O9   O   0.32581   0.64693   0.13527 
O10  O   0.34850   0.46212   0.19253 
O11  O   0.30838   0.79279   0.00000 
O12  O   0.28702   0.79979   0.19391 
O13  O   0.39710   0.78558   0.50000 
O14  O   0.34065   0.87591   0.50000 
O15  O   0.38905   0.96182   0.39671 
O16  O   0.39551   0.57961   0.50000 
O17  O   0.44097   0.68061   0.39654 
O18  O   0.33903   0.67002   0.50000 
O19  O   0.34717   0.49410   0.39652 
O20  O   0.29502   0.77495   0.39679 
O21  O   0.32326   0.32012   0.31767 
O22  O   0.38563   0.35040   0.31754 
O23  O   0.34255   0.07798   0.32094 
O24  O   0.40168   0.15069   0.32381 
O25  O   0.23945   0.84063   0.32354 
O26  O   0.28985   0.96509   0.31835 
O27  O   0.45455   0.49387   0.32044 
O28  O   0.49827   0.64257   0.32064 
O29  O   0.29338   0.32801   0.50000 
O30  O   0.28770   0.16174   0.37889 
O31  O   0.31541   0.02150   0.50000 
O32  O   0.39521   0.25749   0.50000 
O33  O   0.44379   0.29664   0.37406 
O34  O   0.47662   0.42025   0.50000 
