data_NAB
#**************************************************************************
#
# CIF taken from the IZA-SC Database of Zeolite Structures
# Ch. Baerlocher and L.B. McCusker
# Database of Zeolite Structures: http://www.iza-structure.org/databases/ 
#
# The atom coordinates and the cell parameters were optimized with DLS76
# assuming a pure SiO2 composition.
#
#**************************************************************************

_cell_length_a     7.18350
_cell_length_b     7.18350
_cell_length_c    12.04260
_cell_angle_alpha   90.00000
_cell_angle_beta    90.00000
_cell_angle_gamma   90.00000

_symmetry_space_group_name_H-M     'I -4 m 2'
_symmetry_Int_Tables_number         119
_symmetry_cell_setting             tetragonal

loop_
  _symmetry_equiv_pos_as_xyz
X,Y,Z
-X,-Y,Z
-X,Y,Z
X,-Y,Z
-Y,X,-Z
Y,-X,-Z
Y,X,-Z
-Y,-X,-Z
X+1/2,Y+1/2,Z+1/2
-X+1/2,-Y+1/2,Z+1/2
-X+1/2,Y+1/2,Z+1/2
X+1/2,-Y+1/2,Z+1/2
-Y+1/2,X+1/2,-Z+1/2
Y+1/2,-X+1/2,-Z+1/2
Y+1/2,X+1/2,-Z+1/2
-Y+1/2,-X+1/2,-Z+1/2


loop_
  _atom_site_label
  _atom_site_type_symbol
  _atom_site_fract_x
  _atom_site_fract_y
  _atom_site_fract_z
T1  Si   0.20656   0.00000   0.78904 
T2  Si 	0.00000   0.00000   0.00000 
O1  O	 0.00000   0.18253   0.07783 
O2  O	 0.00000   0.00000   0.73644 
O3  O	 0.31630   0.81630   0.75000 
