data_NPO
#**************************************************************************
#
# CIF taken from the IZA-SC Database of Zeolite Structures
# Ch. Baerlocher and L.B. McCusker
# Database of Zeolite Structures: http://www.iza-structure.org/databases/ 
#
# The atom coordinates and the cell parameters were optimized with DLS76
# assuming a pure SiO2 composition.
#
#**************************************************************************

_cell_length_a     9.10020
_cell_length_b     9.10020
_cell_length_c     5.26120
_cell_angle_alpha   90.00000
_cell_angle_beta    90.00000
_cell_angle_gamma  120.00000
_cell_volume 377.3

_symmetry_space_group_name_H-M 'P 63/MMC'
_symmetry_Int_Tables_number         194
_symmetry_cell_setting             hexagonal

loop_
  _symmetry_equiv_pos_as_xyz
X,Y,Z
-Y,X-Y,Z
-X+Y,-X,Z
-Y,-X,Z
X,X-Y,Z
-X+Y,Y,Z
-X,-Y,Z+1/2
Y,-X+Y,Z+1/2
X-Y,X,Z+1/2
Y,X,Z+1/2
-X,-X+Y,Z+1/2
X-Y,-Y,Z+1/2
-X,-Y,-Z
Y,-X+Y,-Z
X-Y,X,-Z
Y,X,-Z
-X,-X+Y,-Z
X-Y,-Y,-Z
X,Y,-Z+1/2
-Y,X-Y,-Z+1/2
-X+Y,-X,-Z+1/2
-Y,-X,-Z+1/2
X,X-Y,-Z+1/2
-X+Y,Y,-Z+1/2


loop_
  _atom_site_label
  _atom_site_type_symbol
  _atom_site_fract_x
  _atom_site_fract_y
  _atom_site_fract_z
T1  Si    0.44154   0.88308   0.25000 
O1  O     0.23791   0.76209   0.25000 
O2  O     0.50000   0.00000   0.00000 
