data_SSY
#**************************************************************************
#
# CIF taken from the IZA-SC Database of Zeolite Structures
# Ch. Baerlocher and L.B. McCusker
# Database of Zeolite Structures: http://www.iza-structure.org/databases/ 
#
# The atom coordinates and the cell parameters were optimized with DLS76
# assuming a pure SiO2 composition.
#
#**************************************************************************

_cell_length_a     5.25764
_cell_length_b    22.57891
_cell_length_c    13.97682
_cell_angle_alpha   90.00000
_cell_angle_beta    90.00000
_cell_angle_gamma   90.00000

_symmetry_space_group_name_H-M     'P m m n'
_symmetry_Int_Tables_number         59
_space_group.IT_coordinate_system_code  '2'
_symmetry_cell_setting             orthorhombic

loop_
  _symmetry_equiv_pos_as_xyz
X,Y,Z
-X+1/2,Y,Z
X,-Y+1/2,Z
-X+1/2,-Y+1/2,Z
-X,-Y,-Z
X+1/2,-Y,-Z
-X,Y+1/2,-Z
X+1/2,Y+1/2,-Z


loop_
  _atom_site_label
  _atom_site_type_symbol
  _atom_site_fract_x
  _atom_site_fract_y
  _atom_site_fract_z
T1   Si  0.75000   0.62143   0.22731 
T2   Si  0.75000   0.54957   0.40569 
T3   Si  0.75000   0.37802   0.07874 
T4   Si  0.25000   0.47072   0.38400 
T5   Si  0.25000   0.42763   0.17782 
T6   Si  0.25000   0.56580   0.12986 
T7   Si  0.25000   0.75000   0.01113 
T8   Si  0.75000   0.75000   0.14366 
O1   O   0.75000   0.80808   0.21040 
O2   O   0.00002   0.75000   0.07742 
O3   O   0.25000   0.69173   0.94483 
O4   O   0.75000   0.60846   0.34068 
O5   O   0.00005   0.59250   0.18031 
O6   O   0.75000   0.56643   0.51763 
O7   O   0.99993   0.51167   0.38012 
O8   O   0.75000   0.41611   0.98149 
O9   O   0.50002   0.39379   0.14012 
O10  O   0.25000   0.42697   0.29305 
O11  O   0.25000   0.49478   0.13935 
