data_TUN
#**************************************************************************
#
# CIF taken from the IZA-SC Database of Zeolite Structures
# Ch. Baerlocher and L.B. McCusker
# Database of Zeolite Structures: http://www.iza-structure.org/databases/ 
#
# The atom coordinates and the cell parameters were optimized with DLS76
# assuming a pure SiO2 composition.
#
#**************************************************************************


_cell_length_a    27.84490
_cell_length_b    20.01500
_cell_length_c    19.59650
_cell_angle_alpha   90.00000
_cell_angle_beta    93.20000
_cell_angle_gamma   90.00000


_symmetry_space_group_name_H-M     'C 1 2/m 1'
_symmetry_Int_Tables_number         12
_symmetry_cell_setting             monoclinic

loop_
  _symmetry_equiv_pos_as_xyz
X,Y,Z
X,-Y,Z
-X,-Y,-Z
-X,Y,-Z
X+1/2,Y+1/2,Z
X+1/2,-Y+1/2,Z
-X+1/2,-Y+1/2,-Z
-X+1/2,Y+1/2,-Z


loop_
  _atom_site_label
  _atom_site_type_symbol
  _atom_site_fract_x
  _atom_site_fract_y
  _atom_site_fract_z
T1    Si      0.10260	0.19000   0.71330 
T2    Si      0.99780	0.31690   0.13800 
T3    Si      0.15050	0.19020   0.16950 
T4    Si      0.09430	0.12500   0.92730 
T5    Si      0.10000	0.31290   0.08850 
T6    Si      0.15410	0.42390   0.17350 
T7    Si      0.25230	0.37720   0.22850 
T8    Si      0.14570	0.07640   0.80250 
T9    Si      0.24080	0.07850   0.62210 
T10   Si      0.00210	0.19690   0.24540 
T11   Si      0.24020	0.30940   0.62040 
T12   Si      0.14630	0.31160   0.80300 
T13   Si      0.09870	0.28330   0.93510 
T14   Si      0.16580	0.18960   0.58840 
T15   Si      0.25180	0.22170   0.22720 
T16   Si      0.00480	0.07740   0.14510 
T17   Si      0.10360	0.07760   0.08010 
T18   Si      0.16750	0.37920   0.44470 
T19   Si      0.10980	0.37970   0.30730 
T20   Si      0.00880	0.42280   0.25640 
T21   Si      0.16380	0.21910   0.44000 
T22   Si      0.10650	0.22400   0.30290 
T23   Si      0.16400	0.42180   0.59440 
T24   Si      0.09770	0.42360   0.71330 
O1    O       0.11719	0.11694   0.74194 
O2    O       0.12222	0.19906   0.63812 
O3    O       0.04499	0.19805   0.71044 
O4    O       0.12720	0.24588   0.76281 
O5    O       0.94924	0.32341   0.08986 
O6    O       0.00373	0.38233   0.18541 
O7    O       0.04223	0.31103   0.08918 
O8    O       0.99565	0.25122   0.18503 
O9    O       0.13215	0.18133   0.24547 
O10   O       0.14057	0.12271   0.12636 
O11   O       0.20718	0.20670   0.17362 
O12   O       0.12182	0.25134   0.13287 
O13   O       0.13550	0.11026   0.87479 
O14   O       0.08747	0.20446   0.93460 
O15   O       0.11018	0.09339   0.00065 
O16   O       0.04470	0.09123   0.89893 
O17   O       0.11602	0.30682   0.01108 
O18   O       0.11888	0.38250   0.12116 
O19   O       0.20710	0.39152   0.17566 
O20   O       0.13377	0.42286   0.24879 
O21   O       0.15709	0.50000   0.14741 
O22   O       0.23768	0.39590   0.30451 
O23   O       0.26646	0.29939   0.22489 
O24   O       0.29746	0.42200   0.20865 
O25   O       0.12755	0.00000   0.80215 
O26   O       0.27943	0.09178   0.56547 
O27   O       0.22890	0.00000   0.62607 
O28   O       0.19188	0.11879   0.60267 
O29   O       0.00768	0.12387   0.21226 
O30   O       0.04913	0.21412   0.29375 
O31   O       0.28401	0.31286   0.57023 
O32   O       0.21123	0.37900   0.61692 
O33   O       0.26274	0.29750   0.69690 
O34   O       0.20445	0.24890   0.59914 
O35   O       0.20255	0.32275   0.79150 
O36   O       0.11666	0.37604   0.77534 
O37   O       0.13989	0.30070   0.88341 
O38   O       0.14427	0.19102   0.51035 
O39   O       0.04936	0.09420   0.09902 
O40   O       0.00721	0.00000   0.16745 
O41   O       0.11499	0.00000   0.09520 
O42   O       0.13201	0.40227   0.38137 
O43   O       0.16943	0.29889   0.44580 
O44   O       0.14828	0.40590   0.51574 
O45   O       0.05258	0.39213   0.30360 
O46   O       0.12002	0.30167   0.29460 
O47   O       0.95993	0.41706   0.29617 
O48   O       0.01993	0.50000   0.24062 
O49   O       0.12656	0.19952   0.37742 
O50   O       0.12157	0.40262   0.64345 
O51   O       0.17643	0.50000   0.60267 
O52   O       0.11150	0.50000   0.73124 
